	8
SCF DONE -134.157299822
 O    1.676514   -1.405558    0.040078
 O   -1.332899    0.041790    1.197201
 O   -1.343438   -0.042177   -1.188653
 O    1.675923    1.406095   -0.058153
Sn   -3.081745   -0.000285    0.011977
Sn   -0.343128    1.747729   -0.061493
Sn   -0.342294   -1.747879    0.061244
Sn    3.158505    0.000350   -0.015564
